HIS
  -OEChem-03082421403D

 11 11  0     1  0  0  0  0  0999 V2000
   33.4720   42.6850   -4.6100 N   0  0  0  0  0  0  0  0  0  0  0  0
   33.4140   41.6860   -5.6730 C   0  0  2  0  0  0  0  0  0  0  0  0
   33.7730   42.2790   -7.0400 C   0  0  0  0  0  0  0  0  0  0  0  0
   33.4970   43.4440   -7.3370 O   0  0  0  0  0  0  0  0  0  0  0  0
   32.0050   41.0800   -5.7340 C   0  0  0  0  0  0  0  0  0  0  0  0
   31.8880   39.9020   -6.6510 C   0  0  0  0  0  0  0  0  0  0  0  0
   32.5390   38.7100   -6.4140 N   0  3  0  0  0  0  0  0  0  0  0  0
   31.1990   39.7340   -7.8040 C   0  0  0  0  0  0  0  0  0  0  0  0
   32.2510   37.8570   -7.3820 C   0  0  0  0  0  0  0  0  0  0  0  0
   31.4390   38.4530   -8.2370 N   0  0  0  0  0  0  0  0  0  0  0  0
   34.3820   41.4550   -7.8790 O   0  0  0  0  0  0  0  0  0  0  0  0
  1  2  1  0  0  0  0
  2  3  1  0  0  0  0
  2  5  1  0  0  0  0
  3  4  2  0  0  0  0
  3 11  1  0  0  0  0
  5  6  1  0  0  0  0
  6  7  1  0  0  0  0
  6  8  2  0  0  0  0
  7  9  2  0  0  0  0
  8 10  1  0  0  0  0
  9 10  1  0  0  0  0
M  CHG  1   7   1
M  END
$$$$
