TRP
  -OEChem-03012415303D

 15 16  0     1  0  0  0  0  0999 V2000
   74.7080   60.5120   32.8430 N   0  0  0  0  0  0  0  0  0  0  0  0
   74.4000   61.7350   32.1140 C   0  0  2  0  0  0  0  0  0  0  0  0
   73.5880   61.4110   30.8400 C   0  0  0  0  0  0  0  0  0  0  0  0
   72.9390   62.2920   30.2770 O   0  0  0  0  0  0  0  0  0  0  0  0
   75.6840   62.4730   31.7060 C   0  0  0  0  0  0  0  0  0  0  0  0
   76.6750   62.7270   32.8320 C   0  0  0  0  0  0  0  0  0  0  0  0
   77.7530   61.9640   33.1570 C   0  0  0  0  0  0  0  0  0  0  0  0
   76.6460   63.8050   33.7770 C   0  0  0  0  0  0  0  0  0  0  0  0
   78.4030   62.4940   34.2470 N   0  0  0  0  0  0  0  0  0  0  0  0
   77.7410   63.6250   34.6500 C   0  0  0  0  0  0  0  0  0  0  0  0
   75.7960   64.9020   33.9740 C   0  0  0  0  0  0  0  0  0  0  0  0
   78.0140   64.4990   35.7090 C   0  0  0  0  0  0  0  0  0  0  0  0
   76.0650   65.7760   35.0310 C   0  0  0  0  0  0  0  0  0  0  0  0
   77.1680   65.5650   35.8840 C   0  0  0  0  0  0  0  0  0  0  0  0
   73.4950   60.4700   30.4380 O   0  0  0  0  0  0  0  0  0  0  0  0
  1  2  1  0  0  0  0
  2  3  1  0  0  0  0
  2  5  1  0  0  0  0
  3  4  2  0  0  0  0
  3 15  1  0  0  0  0
  5  6  1  0  0  0  0
  6  7  2  0  0  0  0
  6  8  1  0  0  0  0
  7  9  1  0  0  0  0
  8 10  2  0  0  0  0
  8 11  1  0  0  0  0
  9 10  1  0  0  0  0
 10 12  1  0  0  0  0
 11 13  2  0  0  0  0
 12 14  2  0  0  0  0
 13 14  1  0  0  0  0
M  END
$$$$
